<routes>

    <vType id="car"
           vClass="passenger" length="5" accel="3.5" decel="2.2"
           sigma="1.0" maxSpeed="10"/>
    <vType id="ev"
           vClass="emergency" length="7" accel="5.5" decel="2.2" sigma="1.0"
           maxSpeed="20" guiShape="emergency" speedFactor="2.0"
           minGapLat="0.2"/>

    <route id="route_0" edges="404516659#0 404516659#1 404516659#2 764859885#0 764859885#1 764859885#2 764859885#3 311378706#0 311378706#1 817513031#0 817513031#1" />

<!--    <vehicle id="0" type="car" route="route_0" depart="0" />-->

    <routeDistribution id="routedist_E_NS_100_0">
		<route refId="route_0" probability="1"/>
<!--		<route refId="route_E_S_Router1toRouter2" probability="0"/>-->
	</routeDistribution>

</routes>