<?xml version="1.0" encoding="UTF-8"?>

<routes xmlns:xsi="http://www.w3.org/2001/XMLSchema-instance"
        xsi:noNamespaceSchemaLocation="http://sumo.dlr.de/xsd/routes_file.xsd">

<!--    <flow id="flow_car1_E_NS" color="1,1,0" begin="0" end="7200"-->
<!--          from="404516659#0" to="359552516#1" probability="0.20" />-->

    <!--    <flow id="flow_car1_E_NS" type="vtype_car1" begin="0.00" end="86400.00" from="404516659#0" to="359552516#1"-->
    <!--          departPos="free"-->
    <!--          departSpeed="max" probability="0.20"/>-->

    <!--    <flow id="flow_car1_E_W_2" type="vtype_car1" begin="0.00" end="86400.00" from="404516659#0" to="-610559995#3"-->
    <!--          departPos="free"-->
    <!--          departSpeed="max" probability="0.20"/>-->

    <!--    <flow id="flow_car1_E_W_3" type="vtype_car1" begin="0.00" end="86400.00" from="404516659#0" to="55880457"-->
    <!--          departPos="free"-->
    <!--          departSpeed="max" probability="0.20"/>-->


</routes>