<?xml version="1.0" encoding="UTF-8"?>

<!-- generated on 2023-09-13 10:20:49 by Eclipse SUMO netedit Version 1.18.0
<configuration xmlns:xsi="http://www.w3.org/2001/XMLSchema-instance" xsi:noNamespaceSchemaLocation="http://sumo.dlr.de/xsd/neteditConfiguration.xsd">

    <input>
        <sumocfg-file value="C:\Users\PC\Sumo\2023-09-12-11-40-24\osm.sumocfg"/>
        <additional-files value="C:\Users\PC\Sumo\2023-09-12-11-40-24\osm_stops.add.xml"/>
        <route-files value="C:\Users\PC\Sumo\2023-09-12-11-40-24\routes.rou.xml"/>
        <sumo-net-file value="C:\Users\PC\Sumo\2023-09-12-11-40-24\osm.net.xml"/>
    </input>

    <output>
        <output-file value="C:\Users\PC\Sumo\2023-09-12-11-40-24\osm.net.xml"/>
        <output.street-names value="true"/>
    </output>

    <processing>
        <geometry.min-radius.fix.railways value="false"/>
        <geometry.max-grade.fix value="false"/>
        <offset.disable-normalization value="true"/>
        <lefthand value="0"/>
    </processing>

    <junctions>
        <no-turnarounds value="true"/>
        <junctions.corner-detail value="5"/>
        <junctions.limit-turn-speed value="5.50"/>
        <rectangular-lane-cut value="0"/>
    </junctions>

    <pedestrian>
        <walkingareas value="0"/>
    </pedestrian>

</configuration>
-->

<net version="1.16" junctionCornerDetail="5" limitTurnSpeed="5.50" xmlns:xsi="http://www.w3.org/2001/XMLSchema-instance" xsi:noNamespaceSchemaLocation="http://sumo.dlr.de/xsd/net_file.xsd">

    <location netOffset="-682584.56,-1194798.29" convBoundary="0.00,830.53,3092.01,2148.82" origBoundary="106.670090,10.803879,106.698457,10.826279" projParameter="+proj=utm +zone=48 +ellps=WGS84 +datum=WGS84 +units=m +no_defs"/>

    <type id="highway.footway" priority="1" numLanes="1" speed="2.78" allow="pedestrian" oneway="1" width="2.00"/>
    <type id="highway.primary" priority="12" numLanes="2" speed="27.78" disallow="tram rail_urban rail rail_electric rail_fast ship" oneway="0"/>
    <type id="highway.primary_link" priority="7" numLanes="1" speed="22.22" disallow="tram rail_urban rail rail_electric rail_fast ship" oneway="0"/>
    <type id="highway.residential" priority="3" numLanes="1" speed="13.89" disallow="tram rail_urban rail rail_electric rail_fast ship" oneway="0"/>
    <type id="highway.secondary" priority="11" numLanes="1" speed="27.78" disallow="tram rail_urban rail rail_electric rail_fast ship" oneway="0"/>
    <type id="highway.secondary_link" priority="6" numLanes="1" speed="22.22" disallow="tram rail_urban rail rail_electric rail_fast ship" oneway="0"/>
    <type id="highway.service" priority="1" numLanes="1" speed="5.56" allow="pedestrian delivery bicycle" oneway="0"/>
    <type id="highway.steps" priority="1" numLanes="1" speed="1.39" allow="pedestrian" oneway="1" width="2.00"/>
    <type id="highway.tertiary" priority="10" numLanes="1" speed="22.22" disallow="tram rail_urban rail rail_electric rail_fast ship" oneway="0"/>
    <type id="highway.tertiary_link" priority="5" numLanes="1" speed="22.22" disallow="tram rail_urban rail rail_electric rail_fast ship" oneway="0"/>
    <type id="railway.rail" priority="20" numLanes="1" speed="44.44" allow="rail" oneway="1"/>

    <edge id=":10600833967_0" function="internal">
        <lane id=":10600833967_0_0" index="0" disallow="tram rail_urban rail rail_electric rail_fast ship" speed="13.89" length="9.41" shape="2723.21,1907.46 2714.19,1904.74"/>
        <lane id=":10600833967_0_1" index="1" disallow="tram rail_urban rail rail_electric rail_fast ship" speed="13.89" length="9.41" shape="2724.13,1904.39 2715.12,1901.68"/>
        <lane id=":10600833967_0_2" index="2" disallow="tram rail_urban rail rail_electric rail_fast ship" speed="13.89" length="9.41" shape="2725.05,1901.33 2716.04,1898.61"/>
    </edge>
    <edge id=":10600833967_3" function="internal">
        <lane id=":10600833967_3_0" index="0" disallow="tram rail_urban rail rail_electric rail_fast ship" speed="5.72" length="6.87" shape="2725.05,1901.33 2722.42,1900.43 2720.62,1899.57 2719.64,1898.74 2719.49,1897.94"/>
    </edge>
    <edge id=":10600833967_4" function="internal">
        <lane id=":10600833967_4_0" index="0" disallow="tram rail_urban rail rail_electric rail_fast ship" speed="6.52" length="8.94" shape="2722.53,1898.93 2721.51,1900.80 2719.94,1901.89 2717.80,1902.18 2715.12,1901.68"/>
        <lane id=":10600833967_4_1" index="1" disallow="tram rail_urban rail rail_electric rail_fast ship" speed="5.79" length="6.82" shape="2722.53,1898.93 2721.94,1899.47 2720.66,1899.60 2718.70,1899.31 2716.04,1898.61"/>
    </edge>
    <edge id=":10600833967_6" function="internal">
        <lane id=":10600833967_6_0" index="0" disallow="tram rail_urban rail rail_electric rail_fast ship" speed="3.65" length="4.67" shape="2722.53,1898.93 2721.40,1899.82 2720.51,1899.95 2719.88,1899.32 2719.49,1897.94"/>
    </edge>
    <edge id=":10600833968_0" function="internal">
        <lane id=":10600833968_0_0" index="0" disallow="tram rail_urban rail rail_electric rail_fast ship" speed="6.21" length="7.95" shape="2729.22,1896.30 2726.80,1895.87 2724.90,1896.14 2723.49,1897.09 2722.59,1898.74"/>
    </edge>
    <edge id=":10600833968_1" function="internal">
        <lane id=":10600833968_1_0" index="0" disallow="tram rail_urban rail rail_electric rail_fast ship" speed="27.78" length="14.40" shape="2729.22,1896.30 2715.39,1892.28"/>
        <lane id=":10600833968_1_1" index="1" disallow="tram rail_urban rail rail_electric rail_fast ship" speed="27.78" length="14.40" shape="2730.11,1893.23 2716.28,1889.20"/>
        <lane id=":10600833968_1_2" index="2" disallow="tram rail_urban rail rail_electric rail_fast ship" speed="27.78" length="14.40" shape="2731.01,1890.16 2717.18,1886.13"/>
    </edge>
    <edge id=":10600833968_4" function="internal">
        <lane id=":10600833968_4_0" index="0" disallow="tram rail_urban rail rail_electric rail_fast ship" speed="6.04" length="7.83" shape="2719.55,1897.75 2719.76,1895.95 2719.14,1894.43 2717.68,1893.21 2715.39,1892.28"/>
    </edge>
    <edge id=":10600833968_5" function="internal">
        <lane id=":10600833968_5_0" index="0" disallow="tram rail_urban rail rail_electric rail_fast ship" speed="3.65" length="4.67" shape="2719.55,1897.75 2720.68,1896.85 2721.57,1896.72 2722.20,1897.35 2722.59,1898.74"/>
    </edge>
    <edge id=":10959164503_0" function="internal">
        <lane id=":10959164503_0_0" index="0" allow="rail" speed="44.44" length="20.75" shape="1629.19,1361.93 1631.31,1366.07 1633.91,1371.18 1636.65,1376.21 1639.18,1380.08"/>
    </edge>
    <edge id=":10959164503_1" function="internal">
        <lane id=":10959164503_1_0" index="0" allow="rail" speed="44.44" length="20.76" shape="1626.30,1363.80 1639.18,1380.08"/>
    </edge>
    <edge id=":10959164506_0" function="internal">
        <lane id=":10959164506_0_0" index="0" allow="rail" speed="44.44" length="27.64" shape="1405.83,944.98 1408.42,950.07 1412.43,957.09 1416.55,964.07 1419.44,969.02"/>
    </edge>
    <edge id=":10959164506_1" function="internal">
        <lane id=":10959164506_1_0" index="0" allow="rail" speed="44.44" length="27.64" shape="1405.83,944.98 1416.42,970.50"/>
    </edge>
    <edge id=":10959164508_0" function="internal">
        <lane id=":10959164508_0_0" index="0" allow="rail" speed="44.44" length="28.55" shape="1531.95,1196.87 1534.14,1202.31 1537.57,1209.98 1541.08,1217.63 1543.53,1222.96"/>
    </edge>
    <edge id=":10959164508_1" function="internal">
        <lane id=":10959164508_1_0" index="0" allow="rail" speed="44.44" length="28.59" shape="1531.95,1196.87 1540.34,1224.20"/>
    </edge>
    <edge id=":10959164514_0" function="internal">
        <lane id=":10959164514_0_0" index="0" allow="rail" speed="44.44" length="2.99" shape="1524.71,1178.39 1526.13,1181.03"/>
    </edge>
    <edge id=":10959164514_1" function="internal">
        <lane id=":10959164514_1_0" index="0" allow="rail" speed="44.44" length="3.00" shape="1524.71,1178.39 1525.13,1179.18 1525.39,1179.73 1525.62,1180.30 1525.94,1181.13"/>
    </edge>
    <edge id=":10959164518_0" function="internal">
        <lane id=":10959164518_0_0" index="0" allow="rail" speed="44.44" length="2.70" shape="1654.86,1400.03 1653.57,1397.66"/>
    </edge>
    <edge id=":10959164518_1" function="internal">
        <lane id=":10959164518_1_0" index="0" allow="rail" speed="2.87" length="1.64" shape="1653.35,1397.83 1653.74,1398.29 1653.91,1398.41 1653.85,1398.20 1653.57,1397.66"/>
    </edge>
    <edge id=":10959164527_0" function="internal">
        <lane id=":10959164527_0_0" index="0" allow="rail" speed="44.44" length="0.10" shape="1380.00,882.32 1380.00,882.32"/>
    </edge>
    <edge id=":11006972681_0" function="internal">
        <lane id=":11006972681_0_0" index="0" disallow="tram rail_urban rail rail_electric rail_fast ship" speed="22.22" length="0.30" shape="2107.83,1841.74 2108.07,1841.55"/>
        <lane id=":11006972681_0_1" index="1" disallow="tram rail_urban rail rail_electric rail_fast ship" speed="22.22" length="0.30" shape="2109.84,1844.23 2110.07,1844.05"/>
    </edge>
    <edge id=":11006972682_0" function="internal">
        <lane id=":11006972682_0_0" index="0" disallow="tram rail_urban rail rail_electric rail_fast ship" speed="22.22" length="0.44" shape="2124.16,1828.67 2124.21,1828.63 2124.24,1828.60 2124.28,1828.57 2124.32,1828.52"/>
        <lane id=":11006972682_0_1" index="1" disallow="tram rail_urban rail rail_electric rail_fast ship" speed="22.22" length="0.44" shape="2126.16,1831.17 2126.31,1831.04 2126.41,1830.96 2126.51,1830.86 2126.64,1830.72"/>
    </edge>
    <edge id=":11077943043_0" function="internal">
        <lane id=":11077943043_0_0" index="0" disallow="tram rail_urban rail rail_electric rail_fast ship" speed="13.89" length="0.30" shape="2738.05,1911.90 2737.76,1911.81"/>
        <lane id=":11077943043_0_1" index="1" disallow="tram rail_urban rail rail_electric rail_fast ship" speed="13.89" length="0.30" shape="2738.96,1908.83 2738.68,1908.75"/>
        <lane id=":11077943043_0_2" index="2" disallow="tram rail_urban rail rail_electric rail_fast ship" speed="13.89" length="0.30" shape="2739.88,1905.77 2739.59,1905.68"/>
    </edge>
    <edge id=":1392022024_0" function="internal">
        <lane id=":1392022024_0_0" index="0" disallow="tram rail_urban rail rail_electric rail_fast ship" speed="6.58" length="9.00" shape="933.88,1223.17 933.41,1220.77 932.27,1219.08 930.48,1218.08 928.03,1217.79"/>
    </edge>
    <edge id=":1392022024_1" function="internal">
        <lane id=":1392022024_1_0" index="0" disallow="tram rail_urban rail rail_electric rail_fast ship" speed="27.78" length="14.06" shape="933.88,1223.17 933.45,1208.95"/>
        <lane id=":1392022024_1_1" index="1" disallow="tram rail_urban rail rail_electric rail_fast ship" speed="27.78" length="14.06" shape="937.08,1222.99 936.65,1208.93"/>
        <lane id=":1392022024_1_2" index="2" disallow="tram rail_urban rail rail_electric rail_fast ship" speed="27.78" length="14.06" shape="940.28,1222.82 939.85,1208.91"/>
    </edge>
    <edge id=":1392022024_4" function="internal">
        <lane id=":1392022024_4_0" index="0" disallow="tram rail_urban rail rail_electric rail_fast ship" speed="6.51" length="8.95" shape="927.96,1214.59 930.38,1214.20 932.10,1213.13 933.12,1211.38 933.45,1208.95"/>
    </edge>
    <edge id=":1392022024_5" function="internal">
        <lane id=":1392022024_5_0" index="0" disallow="tram rail_urban rail rail_electric rail_fast ship" speed="3.65" length="4.67" shape="927.96,1214.59 929.18,1215.37 929.59,1216.16 929.21,1216.97 928.03,1217.79"/>
    </edge>
    <edge id=":1392022036_0" function="internal">
        <lane id=":1392022036_0_0" index="0" disallow="tram rail_urban rail rail_electric rail_fast ship" speed="27.78" length="0.30" shape="936.46,1321.44 936.46,1321.14"/>
        <lane id=":1392022036_0_1" index="1" disallow="tram rail_urban rail rail_electric rail_fast ship" speed="27.78" length="0.30" shape="939.66,1321.40 939.66,1321.10"/>
        <lane id=":1392022036_0_2" index="2" disallow="tram rail_urban rail rail_electric rail_fast ship" speed="27.78" length="0.30" shape="942.86,1321.36 942.86,1321.06"/>
    </edge>
    <edge id=":1401875334_0" function="internal">
        <lane id=":1401875334_0_0" index="0" allow="pedestrian delivery bicycle" speed="9.72" length="0.31" shape="1769.21,1627.75 1769.07,1627.47"/>
    </edge>
    <edge id=":1401875334_1" function="internal">
        <lane id=":1401875334_1_0" index="0" allow="pedestrian delivery bicycle" speed="3.65" length="2.34" shape="1769.21,1627.75 1769.34,1626.31 1769.85,1625.58"/>
    </edge>
    <edge id=":1401875334_3" function="internal">
        <lane id=":1401875334_3_0" index="0" allow="pedestrian delivery bicycle" speed="3.65" length="2.34" shape="1769.85,1625.58 1770.75,1625.55 1772.02,1626.22"/>
    </edge>
    <edge id=":1401875334_2" function="internal">
        <lane id=":1401875334_2_0" index="0" allow="pedestrian delivery bicycle" speed="9.72" length="0.25" shape="1771.90,1625.99 1772.02,1626.22"/>
    </edge>
    <edge id=":2469693281_0" function="internal">
        <lane id=":2469693281_0_0" index="0" disallow="tram rail_urban rail rail_electric rail_fast ship" speed="6.51" length="8.68" shape="964.22,1155.32 962.50,1157.21 961.69,1159.10 961.80,1161.01 962.83,1162.91"/>
        <lane id=":2469693281_0_1" index="1" disallow="tram rail_urban rail rail_electric rail_fast ship" speed="7.36" length="11.36" shape="964.22,1155.32 961.43,1158.12 959.85,1160.64 959.47,1162.90 960.30,1164.87"/>
    </edge>
    <edge id=":2469693281_2" function="internal">
        <lane id=":2469693281_2_0" index="0" disallow="tram rail_urban rail rail_electric rail_fast ship" speed="27.78" length="13.05" shape="964.22,1155.32 961.12,1157.77 958.74,1159.08 956.14,1160.05 952.40,1161.45"/>
        <lane id=":2469693281_2_1" index="1" disallow="tram rail_urban rail rail_electric rail_fast ship" speed="27.78" length="13.05" shape="962.53,1152.55 959.61,1154.86 957.38,1156.13 954.95,1157.06 951.43,1158.39"/>
    </edge>
    <edge id=":2493364041_0" function="internal">
        <lane id=":2493364041_0_0" index="0" allow="rail" speed="44.44" length="18.18" shape="1756.75,1587.70 1747.79,1571.88"/>
    </edge>
    <edge id=":2493364041_1" function="internal">
        <lane id=":2493364041_1_0" index="0" disallow="tram rail_urban rail rail_electric rail_fast ship" speed="13.89" length="10.62" shape="1759.39,1584.76 1749.71,1580.40"/>
        <lane id=":2493364041_1_1" index="1" disallow="tram rail_urban rail rail_electric rail_fast ship" speed="13.89" length="10.62" shape="1760.71,1581.84 1751.02,1577.48"/>
    </edge>
    <edge id=":2493364043_0" function="internal">
        <lane id=":2493364043_0_0" index="0" disallow="tram rail_urban rail rail_electric rail_fast ship" speed="6.01" length="7.72" shape="1378.22,1346.52 1376.00,1345.43 1374.13,1345.14 1372.61,1345.64 1371.44,1346.94"/>
    </edge>
    <edge id=":2493364043_1" function="internal">
        <lane id=":2493364043_1_0" index="0" disallow="tram rail_urban rail rail_electric rail_fast ship" speed="27.78" length="14.58" shape="1378.22,1346.52 1365.84,1339.08"/>
        <lane id=":2493364043_1_1" index="1" disallow="tram rail_urban rail rail_electric rail_fast ship" speed="27.78" length="14.58" shape="1379.91,1343.80 1367.45,1336.31"/>
        <lane id=":2493364043_1_2" index="2" disallow="tram rail_urban rail rail_electric rail_fast ship" speed="27.78" length="14.58" shape="1381.59,1341.08 1369.06,1333.54"/>
        <lane id=":2493364043_1_3" index="3" disallow="tram rail_urban rail rail_electric rail_fast ship" speed="27.78" length="14.58" shape="1383.28,1338.36 1370.67,1330.78"/>
    </edge>
    <edge id=":2493364043_5" function="internal">
        <lane id=":2493364043_5_0" index="0" disallow="tram rail_urban rail rail_electric rail_fast ship" speed="6.09" length="7.77" shape="1368.68,1345.33 1369.25,1343.65 1368.97,1342.05 1367.83,1340.52 1365.84,1339.08"/>
        <lane id=":2493364043_5_1" index="1" disallow="tram rail_urban rail rail_electric rail_fast ship" speed="6.92" length="10.34" shape="1368.68,1345.33 1369.96,1342.44 1370.18,1339.97 1369.34,1337.93 1367.45,1336.31"/>
    </edge>
    <edge id=":2493364043_7" function="internal">
        <lane id=":2493364043_7_0" index="0" disallow="tram rail_urban rail rail_electric rail_fast ship" speed="3.65" length="4.67" shape="1368.68,1345.33 1369.97,1344.70 1370.87,1344.76 1371.36,1345.50 1371.44,1346.94"/>
    </edge>
    <edge id=":2493364044_0" function="internal">
        <lane id=":2493364044_0_0" index="0" disallow="tram rail_urban rail rail_electric rail_fast ship" speed="4.95" length="6.56" shape="1529.18,1442.14 1526.67,1440.77 1524.87,1440.03 1523.77,1439.91 1523.38,1440.41"/>
    </edge>
    <edge id=":2493364044_1" function="internal">
        <lane id=":2493364044_1_0" index="0" disallow="tram rail_urban rail rail_electric rail_fast ship" speed="27.78" length="15.10" shape="1529.18,1442.14 1516.07,1434.21"/>
        <lane id=":2493364044_1_1" index="1" disallow="tram rail_urban rail rail_electric rail_fast ship" speed="27.78" length="15.10" shape="1530.80,1439.38 1517.82,1431.53"/>
        <lane id=":2493364044_1_2" index="2" disallow="tram rail_urban rail rail_electric rail_fast ship" speed="27.78" length="15.10" shape="1532.42,1436.62 1519.57,1428.85"/>
        <lane id=":2493364044_1_3" index="3" disallow="tram rail_urban rail rail_electric rail_fast ship" speed="27.78" length="15.10" shape="1534.04,1433.86 1521.31,1426.17"/>
    </edge>
    <edge id=":2493364044_5" function="internal">
        <lane id=":2493364044_5_0" index="0" disallow="tram rail_urban rail rail_electric rail_fast ship" speed="7.67" length="7.73" shape="1520.18,1440.35 1519.98,1438.71 1519.23,1437.14 1517.93,1435.64 1516.07,1434.21"/>
        <lane id=":2493364044_5_1" index="1" disallow="tram rail_urban rail rail_electric rail_fast ship" speed="8.44" length="9.48" shape="1520.18,1440.35 1520.16,1437.16 1519.76,1434.62 1518.98,1432.75 1517.82,1431.53"/>
    </edge>
    <edge id=":2493364044_7" function="internal">
        <lane id=":2493364044_7_0" index="0" disallow="tram rail_urban rail rail_electric rail_fast ship" speed="3.65" length="4.68" shape="1520.18,1440.35 1521.00,1439.17 1521.81,1438.78 1522.60,1439.20 1523.38,1440.41"/>
    </edge>
    <edge id=":2493366312_0" function="internal">
        <lane id=":2493366312_0_0" index="0" disallow="tram rail_urban rail rail_electric rail_fast ship" speed="18.05" length="6.46" shape="2158.96,1696.77 2158.13,1695.08 2157.89,1693.76 2157.64,1692.44 2156.79,1690.76"/>
    </edge>
    <edge id=":2493366312_1" function="internal">
        <lane id=":2493366312_1_0" index="0" disallow="tram rail_urban rail rail_electric rail_fast ship" speed="9.68" length="5.64" shape="2161.62,1695.00 2160.81,1693.58 2160.51,1692.48 2160.51,1691.29 2160.59,1689.62"/>
    </edge>
    <edge id=":2493366313_0" function="internal">
        <lane id=":2493366313_0_0" index="0" allow="rail" speed="44.44" length="17.59" shape="1717.35,1516.09 1708.98,1500.63"/>
    </edge>
    <edge id=":2493366313_1" function="internal">
        <lane id=":2493366313_1_0" index="0" disallow="tram rail_urban rail rail_electric rail_fast ship" speed="13.89" length="9.82" shape="1707.34,1504.01 1715.73,1509.10"/>
        <lane id=":2493366313_1_1" index="1" disallow="tram rail_urban rail rail_electric rail_fast ship" speed="13.89" length="9.82" shape="1705.68,1506.74 1714.09,1511.84"/>
    </edge>
    <edge id=":2493366322_0" function="internal">
        <lane id=":2493366322_0_0" index="0" disallow="tram rail_urban rail rail_electric rail_fast ship" speed="5.84" length="8.03" shape="1322.77,1275.19 1321.83,1276.90 1321.89,1278.53 1322.96,1280.09 1325.03,1281.58"/>
        <lane id=":2493366322_0_1" index="1" disallow="tram rail_urban rail rail_electric rail_fast ship" speed="6.70" length="10.95" shape="1322.77,1275.19 1320.95,1278.01 1320.46,1280.48 1321.29,1282.60 1323.46,1284.37"/>
    </edge>
    <edge id=":2493366322_2" function="internal">
        <lane id=":2493366322_2_0" index="0" disallow="tram rail_urban rail rail_electric rail_fast ship" speed="3.65" length="4.67" shape="1322.77,1275.19 1321.39,1275.60 1320.52,1275.40 1320.16,1274.58 1320.31,1273.15"/>
    </edge>
    <edge id=":2493366322_3" function="internal">
        <lane id=":2493366322_3_0" index="0" disallow="tram rail_urban rail rail_electric rail_fast ship" speed="7.00" length="8.88" shape="1312.33,1274.66 1314.59,1275.48 1316.67,1275.50 1318.58,1274.72 1320.31,1273.15"/>
    </edge>
    <edge id=":2493366322_4" function="internal">
        <lane id=":2493366322_4_0" index="0" disallow="tram rail_urban rail rail_electric rail_fast ship" speed="27.78" length="14.30" shape="1312.33,1274.66 1325.03,1281.58"/>
        <lane id=":2493366322_4_1" index="1" disallow="tram rail_urban rail rail_electric rail_fast ship" speed="27.78" length="14.30" shape="1310.86,1277.49 1323.46,1284.37"/>
        <lane id=":2493366322_4_2" index="2" disallow="tram rail_urban rail rail_electric rail_fast ship" speed="27.78" length="14.30" shape="1309.38,1280.33 1321.89,1287.16"/>
        <lane id=":2493366322_4_3" index="3" disallow="tram rail_urban rail rail_electric rail_fast ship" speed="27.78" length="14.30" shape="1307.90,1283.17 1320.32,1289.94"/>
    </edge>
    <edge id=":2493366323_0" function="internal">
        <lane id=":2493366323_0_0" index="0" allow="pedestrian delivery bicycle" speed="4.16" length="3.75" shape="1529.00,1406.32 1528.94,1406.93 1529.61,1407.64 1530.57,1408.32 1531.42,1408.84"/>
        <lane id=":2493366323_0_1" index="1" allow="pedestrian delivery bicycle" speed="5.19" length="6.54" shape="1529.00,1406.32 1527.86,1407.73 1527.61,1409.07 1528.24,1410.36 1529.76,1411.57"/>
    </edge>
    <edge id=":2493366323_2" function="internal">
        <lane id=":2493366323_2_0" index="0" allow="pedestrian delivery bicycle" speed="3.65" length="4.67" shape="1529.00,1406.32 1527.57,1406.54 1526.73,1406.22 1526.49,1405.36 1526.84,1403.96"/>
    </edge>
    <edge id=":2493366323_3" function="internal">
        <lane id=":2493366323_3_0" index="0" allow="pedestrian delivery bicycle" speed="5.03" length="3.97" shape="1523.16,1403.76 1524.25,1404.32 1525.23,1404.54 1526.09,1404.42 1526.84,1403.96"/>
    </edge>
    <edge id=":2493366323_4" function="internal">
        <lane id=":2493366323_4_0" index="0" disallow="tram rail_urban rail rail_electric rail_fast ship" speed="27.78" length="9.79" shape="1523.16,1403.76 1531.42,1408.84"/>
        <lane id=":2493366323_4_1" index="1" disallow="tram rail_urban rail rail_electric rail_fast ship" speed="27.78" length="9.79" shape="1521.45,1406.46 1529.76,1411.57"/>
        <lane id=":2493366323_4_2" index="2" disallow="tram rail_urban rail rail_electric rail_fast ship" speed="27.78" length="9.79" shape="1519.73,1409.16 1528.09,1414.31"/>
        <lane id=":2493366323_4_3" index="3" disallow="tram rail_urban rail rail_electric rail_fast ship" speed="27.78" length="9.79" shape="1518.02,1411.86 1526.43,1417.04"/>
    </edge>
    <edge id=":2496916446_0" function="internal">
        <lane id=":2496916446_0_0" index="0" disallow="tram rail_urban rail rail_electric rail_fast ship" speed="6.31" length="4.85" shape="1025.31,1167.52 1023.94,1167.07 1022.71,1166.93 1021.62,1167.09 1020.66,1167.56"/>
    </edge>
    <edge id=":2496916446_1" function="internal">
        <lane id=":2496916446_1_0" index="0" disallow="tram rail_urban rail rail_electric rail_fast ship" speed="20.84" length="6.43" shape="1026.55,1164.57 1020.59,1162.31"/>
        <lane id=":2496916446_1_1" index="1" disallow="tram rail_urban rail rail_electric rail_fast ship" speed="20.84" length="6.43" shape="1027.79,1161.62 1021.73,1159.32"/>
    </edge>
    <edge id=":2496916458_0" function="internal">
        <lane id=":2496916458_0_0" index="0" disallow="tram rail_urban rail rail_electric rail_fast ship" speed="13.89" length="0.29" shape="2025.56,1655.86 2025.84,1655.96"/>
    </edge>
    <edge id=":2496916474_0" function="internal">
        <lane id=":2496916474_0_0" index="0" disallow="tram rail_urban rail rail_electric rail_fast ship" speed="6.92" length="5.51" shape="993.20,1193.31 992.94,1194.96 992.98,1196.39 993.31,1197.59 993.94,1198.57"/>
    </edge>
    <edge id=":2496916474_1" function="internal">
        <lane id=":2496916474_1_0" index="0" disallow="tram rail_urban rail rail_electric rail_fast ship" speed="27.78" length="6.20" shape="988.91,1195.20 989.89,1196.71 990.23,1197.96 990.57,1199.21 991.56,1200.71"/>
        <lane id=":2496916474_1_1" index="1" disallow="tram rail_urban rail rail_electric rail_fast ship" speed="27.78" length="6.20" shape="986.51,1197.31 987.49,1198.83 987.84,1200.09 988.18,1201.34 989.18,1202.85"/>
    </edge>
    <edge id=":2838824238_0" function="internal">
        <lane id=":2838824238_0_0" index="0" allow="pedestrian delivery bicycle" speed="5.56" length="0.31" shape="1794.26,1673.65 1794.11,1673.39"/>
    </edge>
    <edge id=":2838824238_1" function="internal">
        <lane id=":2838824238_1_0" index="0" allow="pedestrian delivery bicycle" speed="3.65" length="2.34" shape="1794.26,1673.65 1794.38,1672.22 1794.89,1671.48"/>
    </edge>
    <edge id=":2838824238_4" function="internal">
        <lane id=":2838824238_4_0" index="0" allow="pedestrian delivery bicycle" speed="3.65" length="2.34" shape="1794.89,1671.48 1795.78,1671.44 1797.06,1672.11"/>
    </edge>
    <edge id=":2838824238_2" function="internal">
        <lane id=":2838824238_2_0" index="0" allow="pedestrian delivery bicycle" speed="5.56" length="0.29" shape="1796.92,1671.85 1797.06,1672.11"/>
    </edge>
    <edge id=":2838824238_3" function="internal">
        <lane id=":2838824238_3_0" index="0" allow="pedestrian delivery bicycle" speed="3.65" length="2.34" shape="1796.92,1671.85 1796.80,1673.29 1796.28,1674.02"/>
    </edge>
    <edge id=":2838824238_5" function="internal">
        <lane id=":2838824238_5_0" index="0" allow="pedestrian delivery bicycle" speed="3.65" length="2.34" shape="1796.28,1674.02 1795.39,1674.06 1794.11,1673.39"/>
    </edge>
    <edge id=":3193847884_0" function="internal">
        <lane id=":3193847884_0_0" index="0" disallow="tram rail_urban rail rail_electric rail_fast ship" speed="13.89" length="12.11" shape="1287.92,1253.28 1298.60,1258.99"/>
    </edge>
    <edge id=":3193847887_0" function="internal">
        <lane id=":3193847887_0_0" index="0" disallow="tram rail_urban rail rail_electric rail_fast ship" speed="13.89" length="7.93" shape="1290.33,1305.43 1283.46,1301.47"/>
        <lane id=":3193847887_0_1" index="1" disallow="tram rail_urban rail rail_electric rail_fast ship" speed="13.89" length="7.93" shape="1291.93,1302.66 1285.06,1298.70"/>
    </edge>
    <edge id=":3194982190_0" function="internal">
        <lane id=":3194982190_0_0" index="0" disallow="tram rail_urban rail rail_electric rail_fast ship" speed="13.89" length="9.67" shape="1905.62,1603.87 1914.41,1607.87"/>
    </edge>
    <edge id=":3640191575_0" function="internal">
        <lane id=":3640191575_0_0" index="0" disallow="tram rail_urban rail rail_electric rail_fast ship" speed="6.51" length="8.95" shape="931.46,1067.53 931.94,1069.93 933.07,1071.61 934.85,1072.57 937.29,1072.82"/>
        <lane id=":3640191575_0_1" index="1" disallow="tram rail_urban rail rail_electric rail_fast ship" speed="8.00" length="14.06" shape="928.27,1067.70 929.02,1071.47 930.79,1074.12 933.59,1075.63 937.42,1076.02"/>
    </edge>
    <edge id=":3640191575_2" function="internal">
        <lane id=":3640191575_2_0" index="0" disallow="tram rail_urban rail rail_electric rail_fast ship" speed="27.78" length="13.63" shape="923.51,1074.84 927.52,1073.81 930.31,1073.27 933.14,1073.00 937.29,1072.82"/>
        <lane id=":3640191575_2_1" index="1" disallow="tram rail_urban rail rail_electric rail_fast ship" speed="27.78" length="13.63" shape="924.32,1077.93 928.14,1076.96 930.79,1076.44 933.48,1076.19 937.42,1076.02"/>
    </edge>
    <edge id=":3640191576_0" function="internal">
        <lane id=":3640191576_0_0" index="0" disallow="tram rail_urban rail rail_electric rail_fast ship" speed="11.18" length="10.56" shape="904.81,1078.35 907.53,1079.15 909.49,1079.82 911.38,1079.91 913.88,1078.99"/>
        <lane id=":3640191576_0_1" index="1" disallow="tram rail_urban rail rail_electric rail_fast ship" speed="12.37" length="10.56" shape="904.12,1081.47 907.49,1082.40 909.92,1083.07 912.26,1083.03 915.34,1081.84"/>
    </edge>
    <edge id=":3640191576_2" function="internal">
        <lane id=":3640191576_2_0" index="0" disallow="tram rail_urban rail rail_electric rail_fast ship" speed="27.78" length="10.62" shape="905.13,1085.55 907.57,1083.39 909.25,1081.89 911.05,1080.58 913.88,1078.99"/>
        <lane id=":3640191576_2_1" index="1" disallow="tram rail_urban rail rail_electric rail_fast ship" speed="27.78" length="10.62" shape="907.19,1087.99 909.47,1085.97 911.03,1084.56 912.70,1083.32 915.34,1081.84"/>
    </edge>
    <edge id=":3640193718_0" function="internal">
        <lane id=":3640193718_0_0" index="0" allow="pedestrian delivery bicycle" speed="5.56" length="8.66" shape="1566.78,1356.53 1569.07,1357.33 1570.44,1358.66 1570.87,1360.51 1570.37,1362.89"/>
    </edge>
    <edge id=":3640193718_1" function="internal">
        <lane id=":3640193718_1_0" index="0" allow="pedestrian delivery bicycle" speed="3.65" length="4.67" shape="1566.78,1356.53 1567.81,1357.55 1568.05,1358.41 1567.50,1359.12 1566.17,1359.67"/>
    </edge>
    <edge id=":3640193718_2" function="internal">
        <lane id=":3640193718_2_0" index="0" allow="pedestrian delivery bicycle" speed="3.90" length="2.89" shape="1567.36,1361.79 1567.53,1361.00 1567.39,1360.38 1566.93,1359.94 1566.17,1359.67"/>
    </edge>
    <edge id=":3640193718_3" function="internal">